<?xml version="1.0" encoding="UTF-8"?>

<!-- generated on 2022-10-15 01:13:11 by Eclipse SUMO netedit Version 1.10.0
<configuration xmlns:xsi="http://www.w3.org/2001/XMLSchema-instance" xsi:noNamespaceSchemaLocation="http://sumo.dlr.de/xsd/netconvertConfiguration.xsd">

    <input>
        <sumo-net-file value="C:\Users\Paytakht\OneDrive\Desktop\London(Canada).osc\LnCanada2.net.xml"/>
    </input>

    <output>
        <output-file value="C:\Users\Paytakht\OneDrive\Desktop\London(Canada).osc\LnCanada2.net.xml"/>
    </output>

    <processing>
        <geometry.min-radius.fix.railways value="false"/>
        <geometry.max-grade.fix value="false"/>
        <offset.disable-normalization value="true"/>
        <lefthand value="false"/>
    </processing>

    <junctions>
        <no-turnarounds value="true"/>
        <junctions.corner-detail value="5"/>
        <junctions.limit-turn-speed value="5.5"/>
        <rectangular-lane-cut value="false"/>
    </junctions>

    <pedestrian>
        <walkingareas value="false"/>
    </pedestrian>

    <report>
        <aggregate-warnings value="5"/>
    </report>

</configuration>
-->

<net version="1.9" junctionCornerDetail="5" limitTurnSpeed="5.50" xmlns:xsi="http://www.w3.org/2001/XMLSchema-instance" xsi:noNamespaceSchemaLocation="http://sumo.dlr.de/xsd/net_file.xsd">

    <location netOffset="-479079.07,-4757691.34" convBoundary="103.44,700.53,1015.58,1550.92" origBoundary="-81.257478,42.968121,-81.130147,42.986044" projParameter="+proj=utm +zone=17 +ellps=WGS84 +datum=WGS84 +units=m +no_defs"/>

    <type id="highway.bridleway" priority="1" numLanes="1" speed="2.78" allow="pedestrian" oneway="1" width="2.00"/>
    <type id="highway.bus_guideway" priority="1" numLanes="1" speed="27.78" allow="bus" oneway="1"/>
    <type id="highway.cycleway" priority="1" numLanes="1" speed="8.33" allow="bicycle" oneway="1" width="1.00"/>
    <type id="highway.footway" priority="1" numLanes="1" speed="2.78" allow="pedestrian" oneway="1" width="2.00"/>
    <type id="highway.ford" priority="1" numLanes="1" speed="2.78" allow="army" oneway="1"/>
    <type id="highway.living_street" priority="2" numLanes="1" speed="2.78" disallow="tram rail_urban rail rail_electric rail_fast ship" oneway="1"/>
    <type id="highway.motorway" priority="14" numLanes="2" speed="39.44" allow="private emergency authority army vip passenger hov taxi bus coach delivery truck trailer motorcycle evehicle custom1 custom2" oneway="1"/>
    <type id="highway.motorway_link" priority="9" numLanes="1" speed="22.22" allow="private emergency authority army vip passenger hov taxi bus coach delivery truck trailer motorcycle evehicle custom1 custom2" oneway="1"/>
    <type id="highway.path" priority="1" numLanes="1" speed="2.78" allow="pedestrian bicycle" oneway="1" width="2.00"/>
    <type id="highway.pedestrian" priority="1" numLanes="1" speed="2.78" allow="pedestrian" oneway="1" width="2.00"/>
    <type id="highway.primary" priority="12" numLanes="2" speed="27.78" disallow="tram rail_urban rail rail_electric rail_fast ship" oneway="1"/>
    <type id="highway.primary_link" priority="7" numLanes="1" speed="22.22" disallow="tram rail_urban rail rail_electric rail_fast ship" oneway="1"/>
    <type id="highway.raceway" priority="15" numLanes="2" speed="83.33" allow="vip" oneway="1"/>
    <type id="highway.residential" priority="3" numLanes="1" speed="13.89" disallow="tram rail_urban rail rail_electric rail_fast ship" oneway="1"/>
    <type id="highway.secondary" priority="11" numLanes="1" speed="27.78" disallow="tram rail_urban rail rail_electric rail_fast ship" oneway="1"/>
    <type id="highway.secondary_link" priority="6" numLanes="1" speed="22.22" disallow="tram rail_urban rail rail_electric rail_fast ship" oneway="1"/>
    <type id="highway.service" priority="1" numLanes="1" speed="5.56" allow="pedestrian delivery bicycle" oneway="1"/>
    <type id="highway.stairs" priority="1" numLanes="1" speed="1.39" allow="pedestrian" oneway="1" width="2.00"/>
    <type id="highway.step" priority="1" numLanes="1" speed="1.39" allow="pedestrian" oneway="1" width="2.00"/>
    <type id="highway.steps" priority="1" numLanes="1" speed="1.39" allow="pedestrian" oneway="1" width="2.00"/>
    <type id="highway.tertiary" priority="10" numLanes="1" speed="22.22" disallow="tram rail_urban rail rail_electric rail_fast ship" oneway="1"/>
    <type id="highway.tertiary_link" priority="5" numLanes="1" speed="22.22" disallow="tram rail_urban rail rail_electric rail_fast ship" oneway="1"/>
    <type id="highway.track" priority="1" numLanes="1" speed="5.56" allow="pedestrian motorcycle moped bicycle" oneway="1"/>
    <type id="highway.trunk" priority="13" numLanes="2" speed="27.78" disallow="pedestrian bicycle tram rail_urban rail rail_electric rail_fast ship" oneway="1"/>
    <type id="highway.trunk_link" priority="8" numLanes="1" speed="22.22" disallow="pedestrian bicycle tram rail_urban rail rail_electric rail_fast ship" oneway="1"/>
    <type id="highway.unclassified" priority="4" numLanes="1" speed="13.89" disallow="tram rail_urban rail rail_electric rail_fast ship" oneway="1"/>
    <type id="highway.unsurfaced" priority="1" numLanes="1" speed="8.33" disallow="tram rail_urban rail rail_electric rail_fast ship" oneway="1"/>
    <type id="railway.highspeed" priority="21" numLanes="1" speed="69.44" allow="rail_fast" oneway="1"/>
    <type id="railway.light_rail" priority="19" numLanes="1" speed="27.78" allow="rail_urban" oneway="1"/>
    <type id="railway.preserved" priority="16" numLanes="1" speed="27.78" allow="rail" oneway="1"/>
    <type id="railway.rail" priority="20" numLanes="1" speed="44.44" allow="rail" oneway="1"/>
    <type id="railway.subway" priority="18" numLanes="1" speed="27.78" allow="rail_urban" oneway="1"/>
    <type id="railway.tram" priority="17" numLanes="1" speed="13.89" allow="tram" oneway="1"/>

    <edge id=":1366089142_0" function="internal">
        <lane id=":1366089142_0_0" index="0" disallow="tram rail_urban rail rail_electric rail_fast ship" speed="13.89" length="0.30" shape="715.94,1107.30 715.65,1107.19"/>
        <lane id=":1366089142_0_1" index="1" disallow="tram rail_urban rail rail_electric rail_fast ship" speed="13.89" length="0.30" shape="717.05,1104.30 716.77,1104.19"/>
        <lane id=":1366089142_0_2" index="2" disallow="tram rail_urban rail rail_electric rail_fast ship" speed="13.89" length="0.30" shape="718.17,1101.30 717.89,1101.20"/>
    </edge>
    <edge id=":1366089142_3" function="internal">
        <lane id=":1366089142_3_0" index="0" disallow="tram rail_urban rail rail_electric rail_fast ship" speed="3.65" length="2.34" shape="718.17,1101.30 717.33,1100.13 717.23,1099.24"/>
    </edge>
    <edge id=":1366089142_7" function="internal">
        <lane id=":1366089142_7_0" index="0" disallow="tram rail_urban rail rail_electric rail_fast ship" speed="3.65" length="2.34" shape="717.23,1099.24 717.88,1098.63 719.29,1098.30"/>
    </edge>
    <edge id=":1366089142_4" function="internal">
        <lane id=":1366089142_4_0" index="0" disallow="tram rail_urban rail rail_electric rail_fast ship" speed="13.89" length="0.30" shape="720.13,1095.20 720.41,1095.30"/>
        <lane id=":1366089142_4_1" index="1" disallow="tram rail_urban rail rail_electric rail_fast ship" speed="13.89" length="0.30" shape="719.01,1098.20 719.29,1098.30"/>
    </edge>
    <edge id=":1366089142_6" function="internal">
        <lane id=":1366089142_6_0" index="0" disallow="tram rail_urban rail rail_electric rail_fast ship" speed="3.65" length="2.34" shape="719.01,1098.20 719.85,1099.37 719.95,1100.26"/>
    </edge>
    <edge id=":1366089142_8" function="internal">
        <lane id=":1366089142_8_0" index="0" disallow="tram rail_urban rail rail_electric rail_fast ship" speed="3.65" length="2.34" shape="719.95,1100.26 719.29,1100.87 717.89,1101.20"/>
    </edge>
    <edge id=":1485804075_0" function="internal">
        <lane id=":1485804075_0_0" index="0" disallow="tram rail_urban rail rail_electric rail_fast ship" speed="13.89" length="0.32" shape="393.70,736.84 393.58,737.15"/>
        <lane id=":1485804075_0_1" index="1" disallow="tram rail_urban rail rail_electric rail_fast ship" speed="13.89" length="0.32" shape="390.68,735.77 390.57,736.06"/>
    </edge>
    <edge id=":1485804075_2" function="internal">
        <lane id=":1485804075_2_0" index="0" disallow="tram rail_urban rail rail_electric rail_fast ship" speed="3.65" length="2.34" shape="390.68,735.77 389.52,736.64 388.64,736.75"/>
    </edge>
    <edge id=":1485804075_6" function="internal">
        <lane id=":1485804075_6_0" index="0" disallow="tram rail_urban rail rail_electric rail_fast ship" speed="3.65" length="2.34" shape="388.64,736.75 388.02,736.11 387.66,734.71"/>
    </edge>
    <edge id=":1485804075_3" function="internal">
        <lane id=":1485804075_3_0" index="0" disallow="tram rail_urban rail rail_electric rail_fast ship" speed="13.89" length="0.27" shape="384.55,733.89 384.64,733.64"/>
        <lane id=":1485804075_3_1" index="1" disallow="tram rail_urban rail rail_electric rail_fast ship" speed="13.89" length="0.27" shape="387.56,734.98 387.66,734.71"/>
    </edge>
    <edge id=":1485804075_5" function="internal">
        <lane id=":1485804075_5_0" index="0" disallow="tram rail_urban rail rail_electric rail_fast ship" speed="3.65" length="2.34" shape="387.56,734.98 388.72,734.12 389.61,734.01"/>
    </edge>
    <edge id=":1485804075_7" function="internal">
        <lane id=":1485804075_7_0" index="0" disallow="tram rail_urban rail rail_electric rail_fast ship" speed="3.65" length="2.34" shape="389.61,734.01 390.23,734.66 390.57,736.06"/>
    </edge>
    <edge id=":1485804444_0" function="internal">
        <lane id=":1485804444_0_0" index="0" disallow="tram rail_urban rail rail_electric rail_fast ship" speed="13.89" length="0.25" shape="376.72,783.83 376.65,784.05"/>
        <lane id=":1485804444_0_1" index="1" disallow="tram rail_urban rail rail_electric rail_fast ship" speed="13.89" length="0.25" shape="373.71,782.75 373.62,783.00"/>
    </edge>
    <edge id=":1485804444_2" function="internal">
        <lane id=":1485804444_2_0" index="0" disallow="tram rail_urban rail rail_electric rail_fast ship" speed="3.65" length="2.34" shape="373.71,782.75 372.55,783.60 371.67,783.71"/>
    </edge>
    <edge id=":1485804444_6" function="internal">
        <lane id=":1485804444_6_0" index="0" disallow="tram rail_urban rail rail_electric rail_fast ship" speed="3.65" length="2.34" shape="371.67,783.71 371.05,783.06 370.70,781.66"/>
    </edge>
    <edge id=":1485804444_3" function="internal">
        <lane id=":1485804444_3_0" index="0" disallow="tram rail_urban rail rail_electric rail_fast ship" speed="13.89" length="0.33" shape="367.58,780.91 367.69,780.57"/>
        <lane id=":1485804444_3_1" index="1" disallow="tram rail_urban rail rail_electric rail_fast ship" speed="13.89" length="0.33" shape="370.60,781.95 370.70,781.66"/>
    </edge>
    <edge id=":1485804444_5" function="internal">
        <lane id=":1485804444_5_0" index="0" disallow="tram rail_urban rail rail_electric rail_fast ship" speed="3.65" length="2.34" shape="370.60,781.95 371.75,781.08 372.64,780.97"/>
    </edge>
    <edge id=":1485804444_7" function="internal">
        <lane id=":1485804444_7_0" index="0" disallow="tram rail_urban rail rail_electric rail_fast ship" speed="3.65" length="2.34" shape="372.64,780.97 373.26,781.61 373.62,783.00"/>
    </edge>
    <edge id=":1542894567_0" function="internal">
        <lane id=":1542894567_0_0" index="0" disallow="tram rail_urban rail rail_electric rail_fast ship" speed="8.33" length="0.30" shape="746.41,1415.00 746.13,1414.90"/>
    </edge>
    <edge id=":1542894567_1" function="internal">
        <lane id=":1542894567_1_0" index="0" disallow="tram rail_urban rail rail_electric rail_fast ship" speed="3.65" length="2.34" shape="746.41,1415.00 745.57,1413.83 745.47,1412.94"/>
    </edge>
    <edge id=":1542894567_4" function="internal">
        <lane id=":1542894567_4_0" index="0" disallow="tram rail_urban rail rail_electric rail_fast ship" speed="3.65" length="2.34" shape="745.47,1412.94 746.13,1412.33 747.53,1412.00"/>
    </edge>
    <edge id=":1542894567_2" function="internal">
        <lane id=":1542894567_2_0" index="0" disallow="tram rail_urban rail rail_electric rail_fast ship" speed="8.33" length="0.30" shape="747.25,1411.90 747.53,1412.00"/>
    </edge>
    <edge id=":1542894567_3" function="internal">
        <lane id=":1542894567_3_0" index="0" disallow="tram rail_urban rail rail_electric rail_fast ship" speed="3.65" length="2.34" shape="747.25,1411.90 748.09,1413.07 748.19,1413.96"/>
    </edge>
    <edge id=":1542894567_5" function="internal">
        <lane id=":1542894567_5_0" index="0" disallow="tram rail_urban rail rail_electric rail_fast ship" speed="3.65" length="2.34" shape="748.19,1413.96 747.54,1414.57 746.13,1414.90"/>
    </edge>
    <edge id=":1556566017_0" function="internal">
        <lane id=":1556566017_0_0" index="0" disallow="tram rail_urban rail rail_electric rail_fast ship" speed="13.89" length="0.27" shape="567.84,1194.17 568.02,1194.24"/>
        <lane id=":1556566017_0_1" index="1" disallow="tram rail_urban rail rail_electric rail_fast ship" speed="13.89" length="0.27" shape="566.64,1197.14 566.90,1197.24"/>
        <lane id=":1556566017_0_2" index="2" disallow="tram rail_urban rail rail_electric rail_fast ship" speed="13.89" length="0.27" shape="565.45,1200.11 565.77,1200.23"/>
    </edge>
    <edge id=":1609121073_0" function="internal">
        <lane id=":1609121073_0_0" index="0" disallow="tram rail_urban rail rail_electric rail_fast ship" speed="13.89" length="0.31" shape="348.16,867.76 348.05,868.06"/>
        <lane id=":1609121073_0_1" index="1" disallow="tram rail_urban rail rail_electric rail_fast ship" speed="13.89" length="0.31" shape="345.16,866.65 345.06,866.94"/>
    </edge>
    <edge id=":1609121073_2" function="internal">
        <lane id=":1609121073_2_0" index="0" disallow="tram rail_urban rail rail_electric rail_fast ship" speed="13.89" length="0.29" shape="339.06,864.70 339.16,864.44"/>
        <lane id=":1609121073_2_1" index="1" disallow="tram rail_urban rail rail_electric rail_fast ship" speed="13.89" length="0.29" shape="342.06,865.82 342.16,865.55"/>
    </edge>
    <edge id=":2452141401_0" function="internal">
        <lane id=":2452141401_0_0" index="0" disallow="tram rail_urban rail rail_electric rail_fast ship" speed="11.61" length="3.64" shape="177.78,1364.83 176.78,1364.42 176.07,1364.22 175.33,1364.15 174.25,1364.15"/>
    </edge>
    <edge id=":2452141401_1" function="internal">
        <lane id=":2452141401_1_0" index="0" disallow="tram rail_urban rail rail_electric rail_fast ship" speed="12.93" length="3.86" shape="179.01,1361.87 177.96,1361.43 177.26,1361.06 176.64,1360.58 175.82,1359.78"/>
    </edge>
    <edge id=":2452141410_0" function="internal">
        <lane id=":2452141410_0_0" index="0" disallow="tram rail_urban rail rail_electric rail_fast ship" speed="13.89" length="14.96" shape="153.86,1386.90 151.55,1389.87 149.22,1392.82 147.11,1395.89 145.49,1399.23"/>
    </edge>
    <edge id=":2452141410_1" function="internal">
        <lane id=":2452141410_1_0" index="0" disallow="tram rail_urban rail rail_electric rail_fast ship" speed="13.89" length="14.96" shape="150.70,1385.21 145.49,1399.23"/>
    </edge>
    <edge id=":2452141410_2" function="internal">
        <lane id=":2452141410_2_0" index="0" disallow="tram rail_urban rail rail_electric rail_fast ship" speed="3.65" length="2.34" shape="150.70,1385.21 149.54,1386.06 148.65,1386.16"/>
    </edge>
    <edge id=":2452141410_5" function="internal">
        <lane id=":2452141410_5_0" index="0" disallow="tram rail_urban rail rail_electric rail_fast ship" speed="3.65" length="2.34" shape="148.65,1386.16 148.04,1385.50 147.70,1384.10"/>
    </edge>
    <edge id=":2452141410_3" function="internal">
        <lane id=":2452141410_3_0" index="0" disallow="tram rail_urban rail rail_electric rail_fast ship" speed="13.89" length="14.97" shape="142.49,1398.14 147.70,1384.10"/>
    </edge>
    <edge id=":2452141410_4" function="internal">
        <lane id=":2452141410_4_0" index="0" disallow="tram rail_urban rail rail_electric rail_fast ship" speed="3.65" length="2.34" shape="142.49,1398.14 143.65,1397.28 144.54,1397.18"/>
    </edge>
    <edge id=":2452141410_6" function="internal">
        <lane id=":2452141410_6_0" index="0" disallow="tram rail_urban rail rail_electric rail_fast ship" speed="3.65" length="2.34" shape="144.54,1397.18 145.15,1397.83 145.49,1399.23"/>
    </edge>
    <edge id=":2452148364_0" function="internal">
        <lane id=":2452148364_0_0" index="0" disallow="tram rail_urban rail rail_electric rail_fast ship" speed="13.89" length="0.63" shape="271.33,1401.76 271.06,1401.67 270.88,1401.59 270.71,1401.51 270.47,1401.37"/>
        <lane id=":2452148364_0_1" index="1" disallow="tram rail_urban rail rail_electric rail_fast ship" speed="13.89" length="0.63" shape="272.35,1398.73 272.26,1398.70 272.21,1398.67 272.15,1398.64 272.07,1398.60"/>
    </edge>
    <edge id=":2452158101_0" function="internal">
        <lane id=":2452158101_0_0" index="0" disallow="tram rail_urban rail rail_electric rail_fast ship" speed="3.65" length="4.67" shape="159.44,1195.32 158.64,1194.12 158.57,1193.23 159.25,1192.64 160.66,1192.36"/>
    </edge>
    <edge id=":258961689_0" function="internal">
        <lane id=":258961689_0_0" index="0" disallow="tram rail_urban rail rail_electric rail_fast ship" speed="6.51" length="8.98" shape="907.27,1471.54 909.68,1472.06 911.67,1471.70 913.27,1470.44 914.46,1468.28"/>
        <lane id=":258961689_0_1" index="1" disallow="tram rail_urban rail rail_electric rail_fast ship" speed="7.33" length="11.67" shape="907.27,1471.54 910.99,1472.55 913.92,1472.54 916.08,1471.50 917.45,1469.42"/>
        <lane id=":258961689_0_2" index="2" disallow="tram rail_urban rail rail_electric rail_fast ship" speed="8.10" length="14.50" shape="907.27,1471.54 912.30,1473.04 916.17,1473.38 918.88,1472.56 920.44,1470.56"/>
        <lane id=":258961689_0_3" index="3" disallow="tram rail_urban rail rail_electric rail_fast ship" speed="8.83" length="17.42" shape="907.27,1471.54 913.61,1473.53 918.41,1474.23 921.69,1473.62 923.43,1471.70"/>
    </edge>
    <edge id=":258961689_4" function="internal">
        <lane id=":258961689_4_0" index="0" disallow="tram rail_urban rail rail_electric rail_fast ship" speed="3.65" length="4.67" shape="907.27,1471.54 908.12,1472.71 908.21,1473.60 907.56,1474.21 906.16,1474.54"/>
    </edge>
    <edge id=":259075693_0" function="internal">
        <lane id=":259075693_0_0" index="0" disallow="tram rail_urban rail rail_electric rail_fast ship" speed="6.50" length="9.03" shape="573.16,1349.55 570.75,1349.01 568.74,1349.37 567.14,1350.64 565.96,1352.82"/>
    </edge>
    <edge id=":259075693_1" function="internal">
        <lane id=":259075693_1_0" index="0" disallow="tram rail_urban rail rail_electric rail_fast ship" speed="8.33" length="20.84" shape="573.16,1349.55 553.67,1342.18"/>
    </edge>
    <edge id=":259075693_2" function="internal">
        <lane id=":259075693_2_0" index="0" disallow="tram rail_urban rail rail_electric rail_fast ship" speed="3.65" length="2.34" shape="573.16,1349.55 572.32,1348.38 572.23,1347.49"/>
    </edge>
    <edge id=":259075693_12" function="internal">
        <lane id=":259075693_12_0" index="0" disallow="tram rail_urban rail rail_electric rail_fast ship" speed="3.65" length="2.34" shape="572.23,1347.49 572.89,1346.88 574.30,1346.56"/>
    </edge>
    <edge id=":259075693_3" function="internal">
        <lane id=":259075693_3_0" index="0" disallow="tram rail_urban rail rail_electric rail_fast ship" speed="13.89" length="14.49" shape="571.00,1339.22 565.96,1352.82"/>
        <lane id=":259075693_3_1" index="1" disallow="tram rail_urban rail rail_electric rail_fast ship" speed="13.89" length="14.49" shape="568.00,1338.12 562.96,1351.70"/>
    </edge>
    <edge id=":259075693_5" function="internal">
        <lane id=":259075693_5_0" index="0" disallow="tram rail_urban rail rail_electric rail_fast ship" speed="3.65" length="2.34" shape="568.00,1338.12 566.83,1338.97 565.94,1339.07"/>
    </edge>
    <edge id=":259075693_13" function="internal">
        <lane id=":259075693_13_0" index="0" disallow="tram rail_urban rail rail_electric rail_fast ship" speed="3.65" length="2.34" shape="565.94,1339.07 565.33,1338.41 565.00,1337.01"/>
    </edge>
    <edge id=":259075693_6" function="internal">
        <lane id=":259075693_6_0" index="0" disallow="tram rail_urban rail rail_electric rail_fast ship" speed="6.49" length="9.03" shape="554.80,1339.19 557.22,1339.73 559.23,1339.36 560.82,1338.08 561.99,1335.90"/>
    </edge>
    <edge id=":259075693_7" function="internal">
        <lane id=":259075693_7_0" index="0" disallow="tram rail_urban rail rail_electric rail_fast ship" speed="8.33" length="20.84" shape="554.80,1339.19 574.30,1346.56"/>
    </edge>
    <edge id=":259075693_8" function="internal">
        <lane id=":259075693_8_0" index="0" disallow="tram rail_urban rail rail_electric rail_fast ship" speed="3.65" length="2.34" shape="554.80,1339.19 555.64,1340.36 555.73,1341.25"/>
    </edge>
    <edge id=":259075693_14" function="internal">
        <lane id=":259075693_14_0" index="0" disallow="tram rail_urban rail rail_electric rail_fast ship" speed="3.65" length="2.34" shape="555.73,1341.25 555.08,1341.86 553.67,1342.18"/>
    </edge>
    <edge id=":259075693_9" function="internal">
        <lane id=":259075693_9_0" index="0" disallow="tram rail_urban rail rail_electric rail_fast ship" speed="13.89" length="14.46" shape="556.97,1349.46 561.99,1335.90"/>
        <lane id=":259075693_9_1" index="1" disallow="tram rail_urban rail rail_electric rail_fast ship" speed="13.89" length="14.46" shape="559.96,1350.58 565.00,1337.01"/>
    </edge>
    <edge id=":259075693_11" function="internal">
        <lane id=":259075693_11_0" index="0" disallow="tram rail_urban rail rail_electric rail_fast ship" speed="3.65" length="2.34" shape="559.96,1350.58 561.13,1349.73 562.02,1349.64"/>
    </edge>
    <edge id=":259075693_15" function="internal">
        <lane id=":259075693_15_0" index="0" disallow="tram rail_urban rail rail_electric rail_fast ship" speed="3.65" length="2.34" shape="562.02,1349.64 562.63,1350.29 562.96,1351.70"/>
    </edge>
    <edge id=":259075718_0" function="internal">
        <lane id=":259075718_0_0" index="0" disallow="tram rail_urban rail rail_electric rail_fast ship" speed="13.89" length="0.35" shape="350.09,862.52 349.96,862.90"/>
        <lane id=":259075718_0_1" index="1" disallow="tram rail_urban rail rail_electric rail_fast ship" speed="13.89" length="0.35" shape="347.06,861.51 346.96,861.79"/>
    </edge>
    <edge id=":259075718_2" function="internal">
        <lane id=":259075718_2_0" index="0" disallow="tram rail_urban rail rail_electric rail_fast ship" speed="13.89" length="0.14" shape="340.95,859.57 340.98,859.49"/>
        <lane id=":259075718_2_1" index="1" disallow="tram rail_urban rail rail_electric rail_fast ship" speed="13.89" length="0.14" shape="343.96,860.68 344.02,860.50"/>
    </edge>
    <edge id=":262418618_0" function="internal">
        <lane id=":262418618_0_0" index="0" disallow="tram rail_urban rail rail_electric rail_fast ship" speed="3.65" length="2.56" shape="1006.56,1207.10 1007.40,1208.28 1007.48,1209.17 1007.32,1209.32"/>
    </edge>
    <edge id=":262418618_3" function="internal">
        <lane id=":262418618_3_0" index="0" disallow="tram rail_urban rail rail_electric rail_fast ship" speed="3.65" length="2.12" shape="1007.32,1209.32 1006.82,1209.77 1005.42,1210.09"/>
    </edge>
    <edge id=":262418618_1" function="internal">
        <lane id=":262418618_1_0" index="0" disallow="tram rail_urban rail rail_electric rail_fast ship" speed="6.51" length="8.95" shape="1007.52,1220.25 1008.04,1217.85 1007.67,1215.86 1006.41,1214.27 1004.27,1213.08"/>
        <lane id=":262418618_1_1" index="1" disallow="tram rail_urban rail rail_electric rail_fast ship" speed="8.00" length="14.06" shape="1010.52,1221.35 1011.33,1217.59 1010.75,1214.46 1008.78,1211.96 1005.42,1210.09"/>
    </edge>
    <edge id=":262418619_0" function="internal">
        <lane id=":262418619_0_0" index="0" disallow="tram rail_urban rail rail_electric rail_fast ship" speed="6.46" length="9.03" shape="670.00,1089.28 667.59,1088.69 665.58,1089.03 663.98,1090.28 662.78,1092.46"/>
    </edge>
    <edge id=":262418619_1" function="internal">
        <lane id=":262418619_1_0" index="0" disallow="tram rail_urban rail rail_electric rail_fast ship" speed="13.89" length="20.91" shape="670.00,1089.28 650.57,1081.74"/>
        <lane id=":262418619_1_1" index="1" disallow="tram rail_urban rail rail_electric rail_fast ship" speed="13.89" length="20.91" shape="671.19,1086.31 651.70,1078.75"/>
        <lane id=":262418619_1_2" index="2" disallow="tram rail_urban rail rail_electric rail_fast ship" speed="13.89" length="20.91" shape="672.38,1083.34 652.82,1075.75"/>
    </edge>
    <edge id=":262418619_4" function="internal">
        <lane id=":262418619_4_0" index="0" disallow="tram rail_urban rail rail_electric rail_fast ship" speed="3.65" length="2.34" shape="672.38,1083.34 671.57,1082.15 671.49,1081.26"/>
    </edge>
    <edge id=":262418619_13" function="internal">
        <lane id=":262418619_13_0" index="0" disallow="tram rail_urban rail rail_electric rail_fast ship" speed="3.65" length="2.34" shape="671.49,1081.26 672.16,1080.67 673.58,1080.37"/>
    </edge>
    <edge id=":262418619_5" function="internal">
        <lane id=":262418619_5_0" index="0" disallow="tram rail_urban rail rail_electric rail_fast ship" speed="13.89" length="21.10" shape="655.07,1069.76 674.77,1077.40"/>
        <lane id=":262418619_5_1" index="1" disallow="tram rail_urban rail rail_electric rail_fast ship" speed="13.89" length="21.10" shape="653.94,1072.75 673.58,1080.37"/>
    </edge>
    <edge id=":262418619_7" function="internal">
        <lane id=":262418619_7_0" index="0" disallow="tram rail_urban rail rail_electric rail_fast ship" speed="9.86" length="6.52" shape="653.94,1072.75 658.53,1075.50 659.15,1076.49"/>
    </edge>
    <edge id=":262418619_8" function="internal">
        <lane id=":262418619_8_0" index="0" disallow="tram rail_urban rail rail_electric rail_fast ship" speed="3.65" length="2.34" shape="653.94,1072.75 654.79,1073.92 654.88,1074.81"/>
    </edge>
    <edge id=":262418619_14" function="internal">
        <lane id=":262418619_14_0" index="0" disallow="tram rail_urban rail rail_electric rail_fast ship" speed="9.86" length="15.60" shape="659.15,1076.49 661.03,1079.51 661.45,1084.78 659.79,1091.33"/>
    </edge>
    <edge id=":262418619_15" function="internal">
        <lane id=":262418619_15_0" index="0" disallow="tram rail_urban rail rail_electric rail_fast ship" speed="3.65" length="2.34" shape="654.88,1074.81 654.22,1075.42 652.82,1075.75"/>
    </edge>
    <edge id=":262418619_9" function="internal">
        <lane id=":262418619_9_0" index="0" disallow="tram rail_urban rail rail_electric rail_fast ship" speed="6.53" length="9.13" shape="653.80,1089.07 654.36,1086.60 654.00,1084.56 652.74,1082.94 650.57,1081.74"/>
        <lane id=":262418619_9_1" index="1" disallow="tram rail_urban rail rail_electric rail_fast ship" speed="8.02" length="14.30" shape="656.79,1090.20 657.66,1086.35 657.10,1083.16 655.11,1080.62 651.70,1078.75"/>
    </edge>
    <edge id=":262418619_11" function="internal">
        <lane id=":262418619_11_0" index="0" disallow="tram rail_urban rail rail_electric rail_fast ship" speed="9.81" length="22.19" shape="656.79,1090.20 659.88,1084.19 663.70,1080.55 668.27,1079.28 673.58,1080.37"/>
    </edge>
    <edge id=":262418619_12" function="internal">
        <lane id=":262418619_12_0" index="0" disallow="tram rail_urban rail rail_electric rail_fast ship" speed="3.65" length="2.34" shape="656.79,1090.20 657.97,1089.36 658.86,1089.26"/>
    </edge>
    <edge id=":262418619_16" function="internal">
        <lane id=":262418619_16_0" index="0" disallow="tram rail_urban rail rail_electric rail_fast ship" speed="3.65" length="2.34" shape="658.86,1089.26 659.46,1089.92 659.79,1091.33"/>
    </edge>
    <edge id=":266389902_0" function="internal">
        <lane id=":266389902_0_0" index="0" disallow="tram rail_urban rail rail_electric rail_fast ship" speed="6.22" length="8.25" shape="619.45,1207.40 618.89,1209.85 619.10,1211.81 620.08,1213.27 621.83,1214.24"/>
    </edge>
    <edge id=":266389902_1" function="internal">
        <lane id=":266389902_1_0" index="0" disallow="tram rail_urban rail rail_electric rail_fast ship" speed="13.89" length="17.34" shape="619.45,1207.40 613.56,1223.74"/>
        <lane id=":266389902_1_1" index="1" disallow="tram rail_urban rail rail_electric rail_fast ship" speed="13.89" length="17.34" shape="616.43,1206.34 610.56,1222.63"/>
    </edge>
    <edge id=":266389902_3" function="internal">
        <lane id=":266389902_3_0" index="0" disallow="tram rail_urban rail rail_electric rail_fast ship" speed="3.65" length="2.34" shape="616.43,1206.34 615.28,1207.20 614.39,1207.31"/>
    </edge>
    <edge id=":266389902_13" function="internal">
        <lane id=":266389902_13_0" index="0" disallow="tram rail_urban rail rail_electric rail_fast ship" speed="3.65" length="2.34" shape="614.39,1207.31 613.77,1206.67 613.42,1205.27"/>
    </edge>
    <edge id=":266389902_4" function="internal">